*SPEF "ieee 1481-1999"
*DESIGN "floatingPointAdder"
*DATE "05:05:32 Wednesday December 25, 2024"
*VENDOR "The OpenROAD Project"
*PROGRAM "OpenROAD"
*VERSION "edf00dff99f6c40d67a30c0e22a8191c5d2ed9d6"
*DESIGN_FLOW "NAME_SCOPE LOCAL" "PIN_CAP NONE"
*DIVIDER /
*DELIMITER :
*BUS_DELIMITER []
*T_UNIT 1 NS
*C_UNIT 1 PF
*R_UNIT 1 OHM
*L_UNIT 1 HENRY

*NAME_MAP
*3 result[0]
*4 result[10]
*5 result[11]
*6 result[12]
*7 result[13]
*8 result[14]
*9 result[15]
*10 result[16]
*11 result[17]
*12 result[18]
*13 result[19]
*14 result[1]
*15 result[20]
*16 result[21]
*17 result[22]
*18 result[23]
*19 result[24]
*20 result[25]
*21 result[26]
*22 result[27]
*23 result[28]
*24 result[29]
*25 result[2]
*26 result[30]
*27 result[31]
*28 result[3]
*29 result[4]
*30 result[5]
*31 result[6]
*32 result[7]
*33 result[8]
*34 result[9]
*35 x[0]
*36 x[10]
*37 x[11]
*38 x[12]
*39 x[13]
*40 x[14]
*41 x[15]
*42 x[16]
*43 x[17]
*44 x[18]
*45 x[19]
*46 x[1]
*47 x[20]
*48 x[21]
*49 x[22]
*50 x[23]
*51 x[24]
*52 x[25]
*53 x[26]
*54 x[27]
*55 x[28]
*56 x[29]
*57 x[2]
*58 x[30]
*59 x[31]
*60 x[3]
*61 x[4]
*62 x[5]
*63 x[6]
*64 x[7]
*65 x[8]
*66 x[9]
*67 y[0]
*68 y[10]
*69 y[11]
*70 y[12]
*71 y[13]
*72 y[14]
*73 y[15]
*74 y[16]
*75 y[17]
*76 y[18]
*77 y[19]
*78 y[1]
*79 y[20]
*80 y[21]
*81 y[22]
*82 y[23]
*83 y[24]
*84 y[25]
*85 y[26]
*86 y[27]
*87 y[28]
*88 y[29]
*89 y[2]
*90 y[30]
*91 y[31]
*92 y[3]
*93 y[4]
*94 y[5]
*95 y[6]
*96 y[7]
*97 y[8]
*98 y[9]
*99 _0000_
*100 _0001_
*101 _0002_
*102 _0003_
*103 _0004_
*104 _0005_
*105 _0006_
*106 _0007_
*107 _0008_
*108 _0009_
*109 _0010_
*110 _0011_
*111 _0012_
*112 _0013_
*113 _0014_
*114 _0015_
*115 _0016_
*116 _0017_
*117 _0018_
*118 _0019_
*119 _0020_
*120 _0021_
*121 _0022_
*122 _0023_
*123 _0024_
*124 _0025_
*125 _0026_
*126 _0027_
*127 _0028_
*128 _0029_
*129 _0030_
*130 _0031_
*131 _0032_
*132 _0033_
*133 _0034_
*134 _0035_
*135 _0036_
*136 _0037_
*137 _0038_
*138 _0039_
*139 _0040_
*140 _0041_
*141 _0042_
*142 _0043_
*143 _0044_
*144 _0045_
*145 _0046_
*146 _0047_
*147 _0048_
*148 _0049_
*149 _0050_
*150 _0051_
*151 _0052_
*152 _0053_
*153 _0054_
*154 _0055_
*155 _0056_
*156 _0057_
*157 _0058_
*158 _0059_
*159 _0060_
*160 _0061_
*161 _0062_
*162 _0063_
*163 _0064_
*164 _0065_
*165 _0066_
*166 _0067_
*167 _0068_
*168 _0069_
*169 _0070_
*170 _0071_
*171 _0072_
*172 _0073_
*173 _0074_
*174 _0075_
*175 _0076_
*176 _0077_
*177 _0078_
*178 _0079_
*179 _0080_
*180 _0081_
*181 _0082_
*182 _0083_
*183 _0084_
*184 _0085_
*185 _0086_
*186 _0087_
*187 _0088_
*188 _0089_
*189 _0090_
*190 _0091_
*191 _0092_
*192 _0093_
*193 _0094_
*194 _0095_
*195 _0096_
*196 _0097_
*197 _0098_
*198 _0099_
*199 _0100_
*200 _0101_
*201 _0102_
*202 _0103_
*203 _0104_
*204 _0105_
*205 _0106_
*206 _0107_
*207 _0108_
*208 _0109_
*209 _0110_
*210 _0111_
*211 _0112_
*212 _0113_
*213 _0114_
*214 _0115_
*215 _0116_
*216 _0117_
*217 _0118_
*218 _0119_
*219 _0120_
*220 _0121_
*221 _0122_
*222 _0123_
*223 _0124_
*224 _0125_
*225 _0126_
*226 _0127_
*227 _0128_
*228 _0129_
*229 _0130_
*230 _0131_
*231 _0132_
*232 _0133_
*233 _0134_
*234 _0135_
*235 _0136_
*236 _0137_
*237 _0138_
*238 _0139_
*239 _0140_
*240 _0141_
*241 _0142_
*242 _0143_
*243 _0144_
*244 _0145_
*245 _0146_
*246 _0147_
*247 _0148_
*248 _0149_
*249 _0150_
*250 _0151_
*251 _0152_
*252 _0153_
*253 _0154_
*254 _0155_
*255 _0156_
*256 _0157_
*257 _0158_
*258 _0159_
*259 _0160_
*260 _0161_
*261 _0162_
*262 _0163_
*263 _0164_
*264 _0165_
*265 _0166_
*266 _0167_
*267 _0168_
*268 _0169_
*269 _0170_
*270 _0171_
*271 _0172_
*272 _0173_
*273 _0174_
*274 _0175_
*275 _0176_
*276 _0177_
*277 _0178_
*278 _0179_
*279 _0180_
*280 _0181_
*281 _0182_
*282 _0183_
*283 _0184_
*284 _0185_
*285 _0186_
*286 _0187_
*287 _0188_
*288 _0189_
*289 _0190_
*290 _0191_
*291 _0192_
*292 _0193_
*293 _0194_
*294 _0195_
*295 _0196_
*296 _0197_
*297 _0198_
*298 _0199_
*299 _0200_
*300 _0201_
*301 _0202_
*302 _0203_
*303 _0204_
*304 _0205_
*305 _0206_
*306 _0207_
*307 _0208_
*308 _0209_
*309 _0210_
*310 _0211_
*311 _0212_
*312 _0213_
*313 _0214_
*314 _0215_
*315 _0216_
*316 _0217_
*317 _0218_
*318 _0219_
*319 _0220_
*320 _0221_
*321 _0222_
*322 _0223_
*323 _0224_
*324 _0225_
*325 _0226_
*326 _0227_
*327 _0228_
*328 _0229_
*329 _0230_
*330 _0231_
*331 _0232_
*332 _0233_
*333 _0234_
*334 _0235_
*335 _0236_
*336 _0237_
*337 _0238_
*338 _0239_
*339 _0240_
*340 _0241_
*341 _0242_
*342 _0243_
*343 _0244_
*344 _0245_
*345 _0246_
*346 _0247_
*347 _0248_
*348 _0249_
*349 _0250_
*350 _0251_
*351 _0252_
*352 _0253_
*353 _0254_
*354 _0255_
*355 _0256_
*356 _0257_
*357 _0258_
*358 _0259_
*359 _0260_
*360 _0261_
*361 _0262_
*362 _0263_
*363 _0264_
*364 _0265_
*365 _0266_
*366 _0267_
*367 _0268_
*368 _0269_
*369 _0270_
*370 _0271_
*371 _0272_
*372 _0273_
*373 _0274_
*374 _0275_
*375 _0276_
*376 _0277_
*377 _0278_
*378 _0279_
*379 _0280_
*380 _0281_
*381 _0282_
*382 _0283_
*383 _0284_
*384 _0285_
*385 _0286_
*386 _0287_
*387 _0288_
*388 _0289_
*389 _0290_
*390 _0291_
*391 _0292_
*392 _0293_
*393 _0294_
*394 _0295_
*395 _0296_
*396 _0297_
*397 _0298_
*398 _0299_
*399 _0300_
*400 _0301_
*401 _0302_
*402 _0303_
*403 _0304_
*404 _0305_
*405 _0306_
*406 _0307_
*407 _0308_
*408 _0309_
*409 _0310_
*410 _0311_
*411 _0312_
*412 _0313_
*413 _0314_
*414 _0315_
*415 _0316_
*416 _0317_
*417 _0318_
*418 _0319_
*419 _0320_
*420 _0321_
*421 _0322_
*422 _0323_
*423 _0324_
*424 _0325_
*425 _0326_
*426 _0327_
*427 _0328_
*428 _0329_
*429 _0330_
*430 _0331_
*431 _0332_
*432 _0333_
*433 _0334_
*434 _0335_
*435 _0336_
*436 _0337_
*437 _0338_
*438 _0339_
*439 _0340_
*440 _0341_
*441 _0342_
*442 _0343_
*443 _0344_
*444 _0345_
*445 _0346_
*446 _0347_
*447 _0348_
*448 _0349_
*449 _0350_
*450 _0351_
*451 _0352_
*452 _0353_
*453 _0354_
*454 _0355_
*455 _0356_
*456 _0357_
*457 _0358_
*458 _0359_
*459 _0360_
*460 _0361_
*461 _0362_
*462 _0363_
*463 _0364_
*464 _0365_
*465 _0366_
*466 _0367_
*467 _0368_
*468 _0369_
*469 _0370_
*470 _0371_
*471 _0372_
*472 _0373_
*473 _0374_
*474 _0375_
*475 _0376_
*476 _0377_
*477 _0378_
*478 _0379_
*479 _0380_
*480 _0381_
*481 _0382_
*482 _0383_
*483 _0384_
*484 _0385_
*485 _0386_
*486 _0387_
*487 _0388_
*488 _0389_
*489 _0390_
*490 _0391_
*491 _0392_
*492 _0393_
*493 _0394_
*494 _0395_
*495 _0396_
*496 _0397_
*497 _0398_
*498 _0399_
*499 _0400_
*500 _0401_
*501 _0402_
*502 _0403_
*503 _0404_
*504 _0405_
*505 _0406_
*506 _0407_
*507 _0408_
*508 _0409_
*509 _0410_
*510 _0411_
*511 _0412_
*512 _0413_
*513 _0414_
*514 _0415_
*515 _0416_
*516 _0417_
*517 _0418_
*518 _0419_
*519 _0420_
*520 _0421_
*521 _0422_
*522 _0423_
*523 _0424_
*524 _0425_
*525 _0426_
*526 _0427_
*527 _0428_
*528 _0429_
*529 _0430_
*530 _0431_
*531 _0432_
*532 _0433_
*533 _0434_
*534 _0435_
*535 _0436_
*536 _0437_
*537 _0438_
*538 _0439_
*539 _0440_
*540 _0441_
*541 _0442_
*542 _0443_
*543 _0444_
*544 _0445_
*545 _0446_
*546 _0447_
*547 _0448_
*548 _0449_
*549 _0450_
*550 _0451_
*551 _0452_
*552 _0453_
*553 _0454_
*554 _0455_
*555 _0456_
*556 _0457_
*557 _0458_
*558 _0459_
*559 _0460_
*560 _0461_
*561 _0462_
*562 _0463_
*563 _0464_
*564 _0465_
*565 _0466_
*566 _0467_
*567 _0468_
*568 _0469_
*569 _0470_
*570 _0471_
*571 _0472_
*572 _0473_
*573 _0474_
*574 _0475_
*575 _0476_
*576 _0477_
*577 _0478_
*578 _0479_
*579 _0480_
*580 _0481_
*581 _0482_
*582 _0483_
*583 _0484_
*584 _0485_
*585 _0486_
*586 _0487_
*587 _0488_
*588 _0489_
*589 _0490_
*590 _0491_
*591 _0492_
*592 _0493_
*593 _0494_
*594 _0495_
*595 _0496_
*596 _0497_
*597 _0498_
*598 _0499_
*599 _0500_
*600 _0501_
*601 _0502_
*602 _0503_
*603 _0504_
*604 _0505_
*605 _0506_
*606 _0507_
*607 _0508_
*608 _0509_
*609 _0510_
*610 _0511_
*611 _0512_
*612 _0513_
*613 _0514_
*614 _0515_
*615 _0516_
*616 _0517_
*617 _0518_
*618 _0519_
*619 _0520_
*620 _0521_
*621 _0522_
*622 _0523_
*623 _0524_
*624 _0525_
*625 _0526_
*626 _0527_
*627 _0528_
*628 _0529_
*629 _0530_
*630 _0531_
*631 _0532_
*632 _0533_
*633 _0534_
*634 _0535_
*635 _0536_
*636 _0537_
*637 _0538_
*638 _0539_
*639 _0540_
*640 _0541_
*641 _0542_
*642 _0543_
*643 _0544_
*644 _0545_
*645 _0546_
*646 _0547_
*647 _0548_
*648 _0549_
*649 _0550_
*650 _0551_
*651 _0552_
*652 _0553_
*653 _0554_
*654 _0555_
*655 _0556_
*656 _0557_
*657 _0558_
*658 _0559_
*659 _0560_
*660 _0561_
*661 _0562_
*662 _0563_
*663 _0564_
*664 _0565_
*665 _0566_
*666 _0567_
*667 _0568_
*668 _0569_
*669 _0570_
*670 _0571_
*671 _0572_
*672 _0573_
*673 _0574_
*674 _0575_
*675 _0576_
*676 _0577_
*677 _0578_
*678 _0579_
*679 _0580_
*680 _0581_
*681 _0582_
*682 _0583_
*683 _0584_
*684 _0585_
*685 _0586_
*686 _0587_
*687 _0588_
*688 _0589_
*689 _0590_
*690 _0591_
*691 _0592_
*692 _0593_
*693 _0594_
*694 _0595_
*695 _0596_
*696 _0597_
*697 _0598_
*698 _0599_
*699 _0600_
*700 _0601_
*701 _0602_
*702 _0603_
*703 _0604_
*704 _0605_
*705 _0606_
*706 _0607_
*707 _0608_
*708 _0609_
*709 _0610_
*710 _0611_
*711 _0612_
*712 _0613_
*713 _0614_
*714 _0615_
*715 _0616_
*716 _0617_
*717 _0618_
*718 _0619_
*719 _0620_
*720 _0621_
*721 _0622_
*722 _0623_
*723 _0624_
*724 _0625_
*725 _0626_
*726 _0627_
*727 _0628_
*728 _0629_
*729 _0630_
*730 _0631_
*731 _0632_
*732 _0633_
*733 _0634_
*734 _0635_
*735 _0636_
*736 _0637_
*737 _0638_
*738 _0639_
*739 _0640_
*740 _0641_
*741 _0642_
*742 _0643_
*743 _0644_
*744 _0645_
*745 _0646_
*746 _0647_
*747 _0648_
*748 _0649_
*749 _0650_
*750 _0651_
*751 _0652_
*752 _0653_
*753 _0654_
*754 _0655_
*755 _0656_
*756 _0657_
*757 _0658_
*758 _0659_
*759 _0660_
*760 _0661_
*761 _0662_
*762 _0663_
*763 _0664_
*764 _0665_
*765 _0666_
*766 _0667_
*767 _0668_
*768 _0669_
*769 _0670_
*770 _0671_
*771 _0672_
*772 _0673_
*773 _0674_
*774 _0675_
*775 _0676_
*776 _0677_
*777 _0678_
*778 _0679_
*779 _0680_
*780 _0681_
*781 _0682_
*782 _0683_
*783 _0684_
*784 _0685_
*785 _0686_
*786 _0687_
*787 _0688_
*788 _0689_
*789 _0690_
*790 _0691_
*791 _0692_
*792 _0693_
*793 _0694_
*794 _0695_
*795 _0696_
*796 _0697_
*797 _0698_
*798 _0699_
*799 _0700_
*800 _0701_
*801 _0702_
*802 _0703_
*803 _0704_
*804 _0705_
*805 _0706_
*806 _0707_
*807 _0708_
*808 _0709_
*809 _0710_
*810 _0711_
*811 _0712_
*812 _0713_
*813 _0714_
*814 _0715_
*815 _0716_
*816 _0717_
*817 _0718_
*818 _0719_
*819 _0720_
*820 _0721_
*821 _0722_
*822 _0723_
*823 _0724_
*824 _0725_
*825 _0726_
*826 _0727_
*827 _0728_
*828 _0729_
*829 _0730_
*830 _0731_
*831 _0732_
*832 _0733_
*833 _0734_
*834 _0735_
*835 _0736_
*836 _0737_
*837 _0738_
*838 _0739_
*839 _0740_
*840 _0741_
*841 _0742_
*842 _0743_
*843 _0744_
*844 _0745_
*845 _0746_
*846 _0747_
*847 _0748_
*848 _0749_
*849 _0750_
*850 _0751_
*851 _0752_
*852 _0753_
*853 _0754_
*854 _0755_
*855 _0756_
*856 _0757_
*857 _0758_
*858 _0759_
*859 _0760_
*860 _0761_
*861 _0762_
*862 _0763_
*863 _0764_
*864 _0765_
*865 _0766_
*866 _0767_
*867 _0768_
*868 _0769_
*869 _0770_
*870 _0771_
*871 _0772_
*872 _0773_
*873 _0774_
*874 _0775_
*875 _0776_
*876 _0777_
*877 _0778_
*878 _0779_
*879 _0780_
*880 _0781_
*881 _0782_
*882 _0783_
*883 _0784_
*884 _0785_
*885 _0786_
*886 _0787_
*887 _0788_
*888 _0789_
*889 _0790_
*890 _0791_
*891 _0792_
*892 _0793_
*893 _0794_
*894 _0795_
*895 _0796_
*896 _0797_
*897 _0798_
*898 _0799_
*899 _0800_
*900 _0801_
*901 _0802_
*902 _0803_
*903 _0804_
*904 _0805_
*905 _0806_
*906 _0807_
*907 _0808_
*908 _0809_
*909 _0810_
*910 _0811_
*911 _0812_
*912 _0813_
*913 _0814_
*914 _0815_
*915 _0816_
*916 _0817_
*917 _0818_
*918 _0819_
*919 _0820_
*920 _0821_
*921 _0822_
*922 _0823_
*923 _0824_
*924 _0825_
*925 _0826_
*926 _0827_
*927 _0828_
*928 _0829_
*929 _0830_
*930 _0831_
*931 _0832_
*932 _0833_
*933 _0834_
*934 _0835_
*935 _0836_
*936 _0837_
*937 _0838_
*938 _0839_
*939 _0840_
*940 _0841_
*941 _0842_
*942 _0843_
*943 _0844_
*944 _0845_
*945 _0846_
*946 _0847_
*947 _0848_
*948 _0849_
*949 _0850_
*950 _0851_
*951 _0852_
*952 _0853_
*953 _0854_
*954 _0855_
*955 _0856_
*956 _0857_
*957 _0858_
*958 _0859_
*959 _0860_
*960 _0861_
*961 _0862_
*962 _0863_
*963 _0864_
*964 _0865_
*965 _0866_
*966 _0867_
*967 _0868_
*968 _0869_
*969 _0870_
*970 _0871_
*971 _0872_
*972 _0873_
*973 _0874_
*974 _0875_
*975 _0876_
*976 _0877_
*977 _0878_
*978 _0879_
*979 _0880_
*980 _0881_
*981 _0882_
*982 _0883_
*983 _0884_
*984 _0885_
*985 _0886_
*986 _0887_
*987 _0888_
*988 _0889_
*989 _0890_
*990 _0891_
*991 _0892_
*992 _0893_
*993 _0894_
*994 _0895_
*995 _0896_
*996 _0897_
*997 _0898_
*998 _0899_
*999 _0900_
*1000 _0901_
*1001 _0902_
*1002 _0903_
*1003 _0904_
*1004 _0905_
*1005 _0906_
*1006 _0907_
*1007 _0908_
*1008 _0909_
*1009 _0910_
*1010 _0911_
*1011 _0912_
*1012 _0913_
*1013 _0914_
*1014 _0915_
*1015 _0916_
*1016 _0917_
*1017 _0918_
*1018 _0919_
*1019 _0920_
*1020 _0921_
*1021 _0922_
*1022 _0923_
*1023 _0924_
*1024 _0925_
*1025 _0926_
*1026 _0927_
*1027 _0928_
*1028 _0929_
*1029 _0930_
*1030 _0931_
*1031 _0932_
*1032 _0933_
*1033 _0934_
*1034 _0935_
*1035 _0936_
*1036 _0937_
*1037 _0938_
*1038 _0939_
*1039 _0940_
*1040 _0941_
*1041 _0942_
*1042 _0943_
*1043 _0944_
*1044 _0945_
*1045 _0946_
*1046 _0947_
*1047 net1
*1048 net10
*1049 net100
*1050 net101
*1051 net102
*1052 net103
*1053 net104
*1054 net105
*1055 net106
*1056 net107
*1057 net108
*1058 net109
*1059 net11
*1060 net110
*1061 net111
*1062 net112
*1063 net12
*1064 net13
*1065 net14
*1066 net15
*1067 net16
*1068 net17
*1069 net18
*1070 net19
*1071 net2
*1072 net20
*1073 net21
*1074 net22
*1075 net23
*1076 net24
*1077 net25
*1078 net26
*1079 net27
*1080 net28
*1081 net29
*1082 net3
*1083 net30
*1084 net31
*1085 net32
*1086 net33
*1087 net34
*1088 net35
*1089 net36
*1090 net37
*1091 net38
*1092 net39
*1093 net4
*1094 net40
*1095 net41
*1096 net42
*1097 net43
*1098 net44
*1099 net45
*1100 net46
*1101 net47
*1102 net48
*1103 net49
*1104 net5
*1105 net50
*1106 net51
*1107 net52
*1108 net53
*1109 net54
*1110 net55
*1111 net56
*1112 net57
*1113 net58
*1114 net59
*1115 net6
*1116 net60
*1117 net61
*1118 net62
*1119 net63
*1120 net64
*1121 net65
*1122 net66
*1123 net67
*1124 net68
*1125 net69
*1126 net7
*1127 net70
*1128 net71
*1129 net72
*1130 net73
*1131 net74
*1132 net75
*1133 net76
*1134 net77
*1135 net78
*1136 net79
*1137 net8
*1138 net80
*1139 net81
*1140 net82
*1141 net83
*1142 net84
*1143 net85
*1144 net86
*1145 net87
*1146 net88
*1147 net89
*1148 net9
*1149 net90
*1150 net91
*1151 net92
*1152 net93
*1153 net94
*1154 net95
*1155 net96
*1156 net97
*1157 net98
*1158 net99
*1159 ANTENNA_1
*1160 ANTENNA_10
*1161 ANTENNA_11
*1162 ANTENNA_12
*1163 ANTENNA_13
*1164 ANTENNA_14
*1165 ANTENNA_15
*1166 ANTENNA_16
*1167 ANTENNA_2
*1168 ANTENNA_3
*1169 ANTENNA_4
*1170 ANTENNA_5
*1171 ANTENNA_6
*1172 ANTENNA_7
*1173 ANTENNA_8
*1174 ANTENNA_9
*1175 FILLER_0_109
*1176 FILLER_0_113
*1177 FILLER_0_125
*1178 FILLER_0_137
*1179 FILLER_0_141
*1180 FILLER_0_15
*1181 FILLER_0_153
*1182 FILLER_0_165
*1183 FILLER_0_169
*1184 FILLER_0_181
*1185 FILLER_0_193
*1186 FILLER_0_197
*1187 FILLER_0_201
*1188 FILLER_0_225
*1189 FILLER_0_239
*1190 FILLER_0_27
*1191 FILLER_0_29
*1192 FILLER_0_3
*1193 FILLER_0_41
*1194 FILLER_0_53
*1195 FILLER_0_57
*1196 FILLER_0_69
*1197 FILLER_0_81
*1198 FILLER_0_85
*1199 FILLER_0_97
*1200 FILLER_10_117
*1201 FILLER_10_141
*1202 FILLER_10_149
*1203 FILLER_10_15
*1204 FILLER_10_21
*1205 FILLER_10_225
*1206 FILLER_10_3
*1207 FILLER_10_33
*1208 FILLER_10_57
*1209 FILLER_10_85
*1210 FILLER_10_93
*1211 FILLER_11_225
*1212 FILLER_11_31
*1213 FILLER_11_41
*1214 FILLER_11_54
*1215 FILLER_11_57
*1216 FILLER_11_9
*1217 FILLER_12_10
*1218 FILLER_12_17
*1219 FILLER_12_195
*1220 FILLER_12_23
*1221 FILLER_12_27
*1222 FILLER_12_29
*1223 FILLER_12_55
*1224 FILLER_12_64
*1225 FILLER_12_78
*1226 FILLER_12_90
*1227 FILLER_12_99
*1228 FILLER_13_113
*1229 FILLER_13_238
*1230 FILLER_13_37
*1231 FILLER_13_54
*1232 FILLER_13_67
*1233 FILLER_14_138
*1234 FILLER_14_180
*1235 FILLER_14_195
*1236 FILLER_14_3
*1237 FILLER_14_76
*1238 FILLER_15_113
*1239 FILLER_15_13
*1240 FILLER_15_181
*1241 FILLER_15_223
*1242 FILLER_15_24
*1243 FILLER_15_69
*1244 FILLER_16_13
*1245 FILLER_16_26
*1246 FILLER_16_38
*1247 FILLER_16_54
*1248 FILLER_16_78
*1249 FILLER_16_85
*1250 FILLER_17_14
*1251 FILLER_17_20
*1252 FILLER_17_238
*1253 FILLER_17_3
*1254 FILLER_17_50
*1255 FILLER_17_66
*1256 FILLER_18_102
*1257 FILLER_18_18
*1258 FILLER_18_24
*1259 FILLER_18_72
*1260 FILLER_18_85
*1261 FILLER_19_106
*1262 FILLER_19_120
*1263 FILLER_19_169
*1264 FILLER_19_26
*1265 FILLER_19_40
*1266 FILLER_19_46
*1267 FILLER_19_66
*1268 FILLER_1_105
*1269 FILLER_1_111
*1270 FILLER_1_113
*1271 FILLER_1_125
*1272 FILLER_1_137
*1273 FILLER_1_149
*1274 FILLER_1_15
*1275 FILLER_1_161
*1276 FILLER_1_167
*1277 FILLER_1_169
*1278 FILLER_1_181
*1279 FILLER_1_189
*1280 FILLER_1_194
*1281 FILLER_1_209
*1282 FILLER_1_213
*1283 FILLER_1_233
*1284 FILLER_1_27
*1285 FILLER_1_3
*1286 FILLER_1_39
*1287 FILLER_1_51
*1288 FILLER_1_55
*1289 FILLER_1_57
*1290 FILLER_1_69
*1291 FILLER_1_81
*1292 FILLER_1_93
*1293 FILLER_20_148
*1294 FILLER_20_25
*1295 FILLER_20_36
*1296 FILLER_20_42
*1297 FILLER_20_73
*1298 FILLER_20_85
*1299 FILLER_21_11
*1300 FILLER_21_20
*1301 FILLER_21_32
*1302 FILLER_21_54
*1303 FILLER_21_74
*1304 FILLER_22_197
*1305 FILLER_22_36
*1306 FILLER_22_63
*1307 FILLER_22_8
*1308 FILLER_22_82
*1309 FILLER_22_85
*1310 FILLER_23_111
*1311 FILLER_23_167
*1312 FILLER_23_22
*1313 FILLER_23_32
*1314 FILLER_23_50
*1315 FILLER_23_75
*1316 FILLER_24_139
*1317 FILLER_24_179
*1318 FILLER_24_26
*1319 FILLER_24_38
*1320 FILLER_24_62
*1321 FILLER_25_104
*1322 FILLER_25_16
*1323 FILLER_25_193
*1324 FILLER_25_28
*1325 FILLER_25_34
*1326 FILLER_25_39
*1327 FILLER_25_44
*1328 FILLER_25_51
*1329 FILLER_25_55
*1330 FILLER_25_57
*1331 FILLER_25_95
*1332 FILLER_26_11
*1333 FILLER_26_138
*1334 FILLER_26_163
*1335 FILLER_26_195
*1336 FILLER_26_197
*1337 FILLER_26_22
*1338 FILLER_26_41
*1339 FILLER_26_55
*1340 FILLER_26_69
*1341 FILLER_26_76
*1342 FILLER_26_94
*1343 FILLER_27_110
*1344 FILLER_27_113
*1345 FILLER_27_153
*1346 FILLER_27_186
*1347 FILLER_27_193
*1348 FILLER_27_233
*1349 FILLER_27_30
*1350 FILLER_27_39
*1351 FILLER_27_53
*1352 FILLER_27_66
*1353 FILLER_27_83
*1354 FILLER_28_104
*1355 FILLER_28_122
*1356 FILLER_28_13
*1357 FILLER_28_180
*1358 FILLER_28_197
*1359 FILLER_28_211
*1360 FILLER_28_228
*1361 FILLER_28_26
*1362 FILLER_28_29
*1363 FILLER_28_51
*1364 FILLER_28_60
*1365 FILLER_28_74
*1366 FILLER_28_82
*1367 FILLER_28_85
*1368 FILLER_28_96
*1369 FILLER_29_105
*1370 FILLER_29_113
*1371 FILLER_29_148
*1372 FILLER_29_162
*1373 FILLER_29_195
*1374 FILLER_29_205
*1375 FILLER_29_230
*1376 FILLER_29_251
*1377 FILLER_29_29
*1378 FILLER_29_35
*1379 FILLER_29_55
*1380 FILLER_29_62
*1381 FILLER_29_76
*1382 FILLER_29_84
*1383 FILLER_29_96
*1384 FILLER_2_109
*1385 FILLER_2_121
*1386 FILLER_2_133
*1387 FILLER_2_139
*1388 FILLER_2_141
*1389 FILLER_2_15
*1390 FILLER_2_153
*1391 FILLER_2_165
*1392 FILLER_2_177
*1393 FILLER_2_214
*1394 FILLER_2_27
*1395 FILLER_2_29
*1396 FILLER_2_3
*1397 FILLER_2_41
*1398 FILLER_2_53
*1399 FILLER_2_65
*1400 FILLER_2_77
*1401 FILLER_2_83
*1402 FILLER_2_85
*1403 FILLER_2_97
*1404 FILLER_30_158
*1405 FILLER_30_19
*1406 FILLER_30_25
*1407 FILLER_30_250
*1408 FILLER_30_3
*1409 FILLER_30_36
*1410 FILLER_30_44
*1411 FILLER_30_61
*1412 FILLER_30_65
*1413 FILLER_30_69
*1414 FILLER_30_83
*1415 FILLER_30_85
*1416 FILLER_30_89
*1417 FILLER_31_11
*1418 FILLER_31_116
*1419 FILLER_31_135
*1420 FILLER_31_162
*1421 FILLER_31_21
*1422 FILLER_31_26
*1423 FILLER_31_32
*1424 FILLER_31_36
*1425 FILLER_31_45
*1426 FILLER_31_60
*1427 FILLER_31_71
*1428 FILLER_31_85
*1429 FILLER_31_98
*1430 FILLER_32_110
*1431 FILLER_32_138
*1432 FILLER_32_141
*1433 FILLER_32_15
*1434 FILLER_32_174
*1435 FILLER_32_26
*1436 FILLER_32_3
*1437 FILLER_32_32
*1438 FILLER_32_83
*1439 FILLER_33_105
*1440 FILLER_33_109
*1441 FILLER_33_113
*1442 FILLER_33_13
*1443 FILLER_33_19
*1444 FILLER_33_207
*1445 FILLER_33_237
*1446 FILLER_33_251
*1447 FILLER_33_27
*1448 FILLER_33_39
*1449 FILLER_33_47
*1450 FILLER_33_54
*1451 FILLER_34_123
*1452 FILLER_34_197
*1453 FILLER_34_242
*1454 FILLER_34_251
*1455 FILLER_34_36
*1456 FILLER_34_68
*1457 FILLER_34_82
*1458 FILLER_35_109
*1459 FILLER_35_131
*1460 FILLER_35_167
*1461 FILLER_35_18
*1462 FILLER_35_22
*1463 FILLER_35_223
*1464 FILLER_35_47
*1465 FILLER_35_57
*1466 FILLER_35_83
*1467 FILLER_36_101
*1468 FILLER_36_107
*1469 FILLER_36_118
*1470 FILLER_36_133
*1471 FILLER_36_139
*1472 FILLER_36_148
*1473 FILLER_36_190
*1474 FILLER_36_197
*1475 FILLER_36_21
*1476 FILLER_36_217
*1477 FILLER_36_27
*1478 FILLER_36_29
*1479 FILLER_36_3
*1480 FILLER_36_42
*1481 FILLER_36_59
*1482 FILLER_36_68
*1483 FILLER_36_74
*1484 FILLER_36_80
*1485 FILLER_36_89
*1486 FILLER_36_93
*1487 FILLER_36_97
*1488 FILLER_37_105
*1489 FILLER_37_110
*1490 FILLER_37_127
*1491 FILLER_37_137
*1492 FILLER_37_158
*1493 FILLER_37_181
*1494 FILLER_37_207
*1495 FILLER_37_225
*1496 FILLER_37_230
*1497 FILLER_37_250
*1498 FILLER_37_46
*1499 FILLER_37_54
*1500 FILLER_37_76
*1501 FILLER_37_8
*1502 FILLER_37_82
*1503 FILLER_38_109
*1504 FILLER_38_121
*1505 FILLER_38_126
*1506 FILLER_38_137
*1507 FILLER_38_141
*1508 FILLER_38_149
*1509 FILLER_38_15
*1510 FILLER_38_162
*1511 FILLER_38_168
*1512 FILLER_38_175
*1513 FILLER_38_197
*1514 FILLER_38_208
*1515 FILLER_38_21
*1516 FILLER_38_240
*1517 FILLER_38_250
*1518 FILLER_38_27
*1519 FILLER_38_3
*1520 FILLER_38_33
*1521 FILLER_38_47
*1522 FILLER_38_64
*1523 FILLER_38_77
*1524 FILLER_38_83
*1525 FILLER_38_85
*1526 FILLER_38_99
*1527 FILLER_39_109
*1528 FILLER_39_113
*1529 FILLER_39_131
*1530 FILLER_39_142
*1531 FILLER_39_15
*1532 FILLER_39_156
*1533 FILLER_39_174
*1534 FILLER_39_184
*1535 FILLER_39_218
*1536 FILLER_39_223
*1537 FILLER_39_225
*1538 FILLER_39_250
*1539 FILLER_39_27
*1540 FILLER_39_3
*1541 FILLER_39_54
*1542 FILLER_39_84
*1543 FILLER_39_88
*1544 FILLER_39_97
*1545 FILLER_3_105
*1546 FILLER_3_111
*1547 FILLER_3_113
*1548 FILLER_3_120
*1549 FILLER_3_132
*1550 FILLER_3_144
*1551 FILLER_3_15
*1552 FILLER_3_156
*1553 FILLER_3_169
*1554 FILLER_3_223
*1555 FILLER_3_225
*1556 FILLER_3_27
*1557 FILLER_3_3
*1558 FILLER_3_39
*1559 FILLER_3_51
*1560 FILLER_3_55
*1561 FILLER_3_57
*1562 FILLER_3_69
*1563 FILLER_3_81
*1564 FILLER_3_93
*1565 FILLER_40_118
*1566 FILLER_40_130
*1567 FILLER_40_138
*1568 FILLER_40_15
*1569 FILLER_40_150
*1570 FILLER_40_178
*1571 FILLER_40_227
*1572 FILLER_40_233
*1573 FILLER_40_27
*1574 FILLER_40_29
*1575 FILLER_40_3
*1576 FILLER_40_37
*1577 FILLER_40_63
*1578 FILLER_40_67
*1579 FILLER_40_82
*1580 FILLER_40_93
*1581 FILLER_41_104
*1582 FILLER_41_120
*1583 FILLER_41_15
*1584 FILLER_41_167
*1585 FILLER_41_172
*1586 FILLER_41_183
*1587 FILLER_41_195
*1588 FILLER_41_205
*1589 FILLER_41_27
*1590 FILLER_41_3
*1591 FILLER_41_39
*1592 FILLER_41_57
*1593 FILLER_41_74
*1594 FILLER_42_103
*1595 FILLER_42_107
*1596 FILLER_42_113
*1597 FILLER_42_117
*1598 FILLER_42_141
*1599 FILLER_42_15
*1600 FILLER_42_153
*1601 FILLER_42_167
*1602 FILLER_42_182
*1603 FILLER_42_194
*1604 FILLER_42_201
*1605 FILLER_42_217
*1606 FILLER_42_235
*1607 FILLER_42_248
*1608 FILLER_42_251
*1609 FILLER_42_27
*1610 FILLER_42_29
*1611 FILLER_42_3
*1612 FILLER_42_41
*1613 FILLER_42_57
*1614 FILLER_42_76
*1615 FILLER_42_85
*1616 FILLER_42_91
*1617 FILLER_4_109
*1618 FILLER_4_117
*1619 FILLER_4_136
*1620 FILLER_4_145
*1621 FILLER_4_15
*1622 FILLER_4_167
*1623 FILLER_4_180
*1624 FILLER_4_197
*1625 FILLER_4_238
*1626 FILLER_4_27
*1627 FILLER_4_29
*1628 FILLER_4_3
*1629 FILLER_4_41
*1630 FILLER_4_53
*1631 FILLER_4_65
*1632 FILLER_4_77
*1633 FILLER_4_85
*1634 FILLER_4_97
*1635 FILLER_5_111
*1636 FILLER_5_113
*1637 FILLER_5_15
*1638 FILLER_5_27
*1639 FILLER_5_3
*1640 FILLER_5_39
*1641 FILLER_5_51
*1642 FILLER_5_55
*1643 FILLER_5_62
*1644 FILLER_5_69
*1645 FILLER_5_91
*1646 FILLER_6_138
*1647 FILLER_6_15
*1648 FILLER_6_219
*1649 FILLER_6_27
*1650 FILLER_6_29
*1651 FILLER_6_3
*1652 FILLER_6_66
*1653 FILLER_6_74
*1654 FILLER_6_83
*1655 FILLER_6_85
*1656 FILLER_7_106
*1657 FILLER_7_148
*1658 FILLER_7_15
*1659 FILLER_7_175
*1660 FILLER_7_27
*1661 FILLER_7_3
*1662 FILLER_7_39
*1663 FILLER_7_45
*1664 FILLER_7_54
*1665 FILLER_7_82
*1666 FILLER_8_139
*1667 FILLER_8_15
*1668 FILLER_8_157
*1669 FILLER_8_251
*1670 FILLER_8_27
*1671 FILLER_8_29
*1672 FILLER_8_3
*1673 FILLER_8_40
*1674 FILLER_8_48
*1675 FILLER_9_134
*1676 FILLER_9_148
*1677 FILLER_9_15
*1678 FILLER_9_166
*1679 FILLER_9_200
*1680 FILLER_9_236
*1681 FILLER_9_27
*1682 FILLER_9_3
*1683 FILLER_9_34
*1684 FILLER_9_53
*1685 FILLER_9_57
*1686 PHY_EDGE_ROW_0_Left_43
*1687 PHY_EDGE_ROW_0_Right_0
*1688 PHY_EDGE_ROW_10_Left_53
*1689 PHY_EDGE_ROW_10_Right_10
*1690 PHY_EDGE_ROW_11_Left_54
*1691 PHY_EDGE_ROW_11_Right_11
*1692 PHY_EDGE_ROW_12_Left_55
*1693 PHY_EDGE_ROW_12_Right_12
*1694 PHY_EDGE_ROW_13_Left_56
*1695 PHY_EDGE_ROW_13_Right_13
*1696 PHY_EDGE_ROW_14_Left_57
*1697 PHY_EDGE_ROW_14_Right_14
*1698 PHY_EDGE_ROW_15_Left_58
*1699 PHY_EDGE_ROW_15_Right_15
*1700 PHY_EDGE_ROW_16_Left_59
*1701 PHY_EDGE_ROW_16_Right_16
*1702 PHY_EDGE_ROW_17_Left_60
*1703 PHY_EDGE_ROW_17_Right_17
*1704 PHY_EDGE_ROW_18_Left_61
*1705 PHY_EDGE_ROW_18_Right_18
*1706 PHY_EDGE_ROW_19_Left_62
*1707 PHY_EDGE_ROW_19_Right_19
*1708 PHY_EDGE_ROW_1_Left_44
*1709 PHY_EDGE_ROW_1_Right_1
*1710 PHY_EDGE_ROW_20_Left_63
*1711 PHY_EDGE_ROW_20_Right_20
*1712 PHY_EDGE_ROW_21_Left_64
*1713 PHY_EDGE_ROW_21_Right_21
*1714 PHY_EDGE_ROW_22_Left_65
*1715 PHY_EDGE_ROW_22_Right_22
*1716 PHY_EDGE_ROW_23_Left_66
*1717 PHY_EDGE_ROW_23_Right_23
*1718 PHY_EDGE_ROW_24_Left_67
*1719 PHY_EDGE_ROW_24_Right_24
*1720 PHY_EDGE_ROW_25_Left_68
*1721 PHY_EDGE_ROW_25_Right_25
*1722 PHY_EDGE_ROW_26_Left_69
*1723 PHY_EDGE_ROW_26_Right_26
*1724 PHY_EDGE_ROW_27_Left_70
*1725 PHY_EDGE_ROW_27_Right_27
*1726 PHY_EDGE_ROW_28_Left_71
*1727 PHY_EDGE_ROW_28_Right_28
*1728 PHY_EDGE_ROW_29_Left_72
*1729 PHY_EDGE_ROW_29_Right_29
*1730 PHY_EDGE_ROW_2_Left_45
*1731 PHY_EDGE_ROW_2_Right_2
*1732 PHY_EDGE_ROW_30_Left_73
*1733 PHY_EDGE_ROW_30_Right_30
*1734 PHY_EDGE_ROW_31_Left_74
*1735 PHY_EDGE_ROW_31_Right_31
*1736 PHY_EDGE_ROW_32_Left_75
*1737 PHY_EDGE_ROW_32_Right_32
*1738 PHY_EDGE_ROW_33_Left_76
*1739 PHY_EDGE_ROW_33_Right_33
*1740 PHY_EDGE_ROW_34_Left_77
*1741 PHY_EDGE_ROW_34_Right_34
*1742 PHY_EDGE_ROW_35_Left_78
*1743 PHY_EDGE_ROW_35_Right_35
*1744 PHY_EDGE_ROW_36_Left_79
*1745 PHY_EDGE_ROW_36_Right_36
*1746 PHY_EDGE_ROW_37_Left_80
*1747 PHY_EDGE_ROW_37_Right_37
*1748 PHY_EDGE_ROW_38_Left_81
*1749 PHY_EDGE_ROW_38_Right_38
*1750 PHY_EDGE_ROW_39_Left_82
*1751 PHY_EDGE_ROW_39_Right_39
*1752 PHY_EDGE_ROW_3_Left_46
*1753 PHY_EDGE_ROW_3_Right_3
*1754 PHY_EDGE_ROW_40_Left_83
*1755 PHY_EDGE_ROW_40_Right_40
*1756 PHY_EDGE_ROW_41_Left_84
*1757 PHY_EDGE_ROW_41_Right_41
*1758 PHY_EDGE_ROW_42_Left_85
*1759 PHY_EDGE_ROW_42_Right_42
*1760 PHY_EDGE_ROW_4_Left_47
*1761 PHY_EDGE_ROW_4_Right_4
*1762 PHY_EDGE_ROW_5_Left_48
*1763 PHY_EDGE_ROW_5_Right_5
*1764 PHY_EDGE_ROW_6_Left_49
*1765 PHY_EDGE_ROW_6_Right_6
*1766 PHY_EDGE_ROW_7_Left_50
*1767 PHY_EDGE_ROW_7_Right_7
*1768 PHY_EDGE_ROW_8_Left_51
*1769 PHY_EDGE_ROW_8_Right_8
*1770 PHY_EDGE_ROW_9_Left_52
*1771 PHY_EDGE_ROW_9_Right_9
*1772 TAP_TAPCELL_ROW_0_86
*1773 TAP_TAPCELL_ROW_0_87
*1774 TAP_TAPCELL_ROW_0_88
*1775 TAP_TAPCELL_ROW_0_89
*1776 TAP_TAPCELL_ROW_0_90
*1777 TAP_TAPCELL_ROW_0_91
*1778 TAP_TAPCELL_ROW_0_92
*1779 TAP_TAPCELL_ROW_0_93
*1780 TAP_TAPCELL_ROW_10_130
*1781 TAP_TAPCELL_ROW_10_131
*1782 TAP_TAPCELL_ROW_10_132
*1783 TAP_TAPCELL_ROW_10_133
*1784 TAP_TAPCELL_ROW_11_134
*1785 TAP_TAPCELL_ROW_11_135
*1786 TAP_TAPCELL_ROW_11_136
*1787 TAP_TAPCELL_ROW_11_137
*1788 TAP_TAPCELL_ROW_12_138
*1789 TAP_TAPCELL_ROW_12_139
*1790 TAP_TAPCELL_ROW_12_140
*1791 TAP_TAPCELL_ROW_12_141
*1792 TAP_TAPCELL_ROW_13_142
*1793 TAP_TAPCELL_ROW_13_143
*1794 TAP_TAPCELL_ROW_13_144
*1795 TAP_TAPCELL_ROW_13_145
*1796 TAP_TAPCELL_ROW_14_146
*1797 TAP_TAPCELL_ROW_14_147
*1798 TAP_TAPCELL_ROW_14_148
*1799 TAP_TAPCELL_ROW_14_149
*1800 TAP_TAPCELL_ROW_15_150
*1801 TAP_TAPCELL_ROW_15_151
*1802 TAP_TAPCELL_ROW_15_152
*1803 TAP_TAPCELL_ROW_15_153
*1804 TAP_TAPCELL_ROW_16_154
*1805 TAP_TAPCELL_ROW_16_155
*1806 TAP_TAPCELL_ROW_16_156
*1807 TAP_TAPCELL_ROW_16_157
*1808 TAP_TAPCELL_ROW_17_158
*1809 TAP_TAPCELL_ROW_17_159
*1810 TAP_TAPCELL_ROW_17_160
*1811 TAP_TAPCELL_ROW_17_161
*1812 TAP_TAPCELL_ROW_18_162
*1813 TAP_TAPCELL_ROW_18_163
*1814 TAP_TAPCELL_ROW_18_164
*1815 TAP_TAPCELL_ROW_18_165
*1816 TAP_TAPCELL_ROW_19_166
*1817 TAP_TAPCELL_ROW_19_167
*1818 TAP_TAPCELL_ROW_19_168
*1819 TAP_TAPCELL_ROW_19_169
*1820 TAP_TAPCELL_ROW_1_94
*1821 TAP_TAPCELL_ROW_1_95
*1822 TAP_TAPCELL_ROW_1_96
*1823 TAP_TAPCELL_ROW_1_97
*1824 TAP_TAPCELL_ROW_20_170
*1825 TAP_TAPCELL_ROW_20_171
*1826 TAP_TAPCELL_ROW_20_172
*1827 TAP_TAPCELL_ROW_20_173
*1828 TAP_TAPCELL_ROW_21_174
*1829 TAP_TAPCELL_ROW_21_175
*1830 TAP_TAPCELL_ROW_21_176
*1831 TAP_TAPCELL_ROW_21_177
*1832 TAP_TAPCELL_ROW_22_178
*1833 TAP_TAPCELL_ROW_22_179
*1834 TAP_TAPCELL_ROW_22_180
*1835 TAP_TAPCELL_ROW_22_181
*1836 TAP_TAPCELL_ROW_23_182
*1837 TAP_TAPCELL_ROW_23_183
*1838 TAP_TAPCELL_ROW_23_184
*1839 TAP_TAPCELL_ROW_23_185
*1840 TAP_TAPCELL_ROW_24_186
*1841 TAP_TAPCELL_ROW_24_187
*1842 TAP_TAPCELL_ROW_24_188
*1843 TAP_TAPCELL_ROW_24_189
*1844 TAP_TAPCELL_ROW_25_190
*1845 TAP_TAPCELL_ROW_25_191
*1846 TAP_TAPCELL_ROW_25_192
*1847 TAP_TAPCELL_ROW_25_193
*1848 TAP_TAPCELL_ROW_26_194
*1849 TAP_TAPCELL_ROW_26_195
*1850 TAP_TAPCELL_ROW_26_196
*1851 TAP_TAPCELL_ROW_26_197
*1852 TAP_TAPCELL_ROW_27_198
*1853 TAP_TAPCELL_ROW_27_199
*1854 TAP_TAPCELL_ROW_27_200
*1855 TAP_TAPCELL_ROW_27_201
*1856 TAP_TAPCELL_ROW_28_202
*1857 TAP_TAPCELL_ROW_28_203
*1858 TAP_TAPCELL_ROW_28_204
*1859 TAP_TAPCELL_ROW_28_205
*1860 TAP_TAPCELL_ROW_29_206
*1861 TAP_TAPCELL_ROW_29_207
*1862 TAP_TAPCELL_ROW_29_208
*1863 TAP_TAPCELL_ROW_29_209
*1864 TAP_TAPCELL_ROW_2_100
*1865 TAP_TAPCELL_ROW_2_101
*1866 TAP_TAPCELL_ROW_2_98
*1867 TAP_TAPCELL_ROW_2_99
*1868 TAP_TAPCELL_ROW_30_210
*1869 TAP_TAPCELL_ROW_30_211
*1870 TAP_TAPCELL_ROW_30_212
*1871 TAP_TAPCELL_ROW_30_213
*1872 TAP_TAPCELL_ROW_31_214
*1873 TAP_TAPCELL_ROW_31_215
*1874 TAP_TAPCELL_ROW_31_216
*1875 TAP_TAPCELL_ROW_31_217
*1876 TAP_TAPCELL_ROW_32_218
*1877 TAP_TAPCELL_ROW_32_219
*1878 TAP_TAPCELL_ROW_32_220
*1879 TAP_TAPCELL_ROW_32_221
*1880 TAP_TAPCELL_ROW_33_222
*1881 TAP_TAPCELL_ROW_33_223
*1882 TAP_TAPCELL_ROW_33_224